<additional>
	<inductionLoop id="10_16_0" lane="10_16_0" pos="1024.87" freq="0.0" file="out.xml"/>
	<inductionLoop id="10_4_0" lane="10_4_0" pos="476.21" freq="0.0" file="out.xml"/>
	<inductionLoop id="10_9_0" lane="10_9_0" pos="1483.9" freq="0.0" file="out.xml"/>
	<inductionLoop id="12_13_0" lane="12_13_0" pos="486.13" freq="0.0" file="out.xml"/>
	<inductionLoop id="13_12_0" lane="13_12_0" pos="486.13" freq="0.0" file="out.xml"/>
	<inductionLoop id="13_14_0" lane="13_14_0" pos="1465.44" freq="0.0" file="out.xml"/>
	<inductionLoop id="13_19_0" lane="13_19_0" pos="2068.67" freq="0.0" file="out.xml"/>
	<inductionLoop id="13_7_0" lane="13_7_0" pos="581.53" freq="0.0" file="out.xml"/>
	<inductionLoop id="14_13_0" lane="14_13_0" pos="1465.44" freq="0.0" file="out.xml"/>
	<inductionLoop id="14_15_0" lane="14_15_0" pos="997.15" freq="0.0" file="out.xml"/>
	<inductionLoop id="14_20_0" lane="14_20_0" pos="944.67" freq="0.0" file="out.xml"/>
	<inductionLoop id="14_8_0" lane="14_8_0" pos="1405.78" freq="0.0" file="out.xml"/>
	<inductionLoop id="15_14_0" lane="15_14_0" pos="997.15" freq="0.0" file="out.xml"/>
	<inductionLoop id="15_16_0" lane="15_16_0" pos="1529.24" freq="0.0" file="out.xml"/>
	<inductionLoop id="15_21_0" lane="15_21_0" pos="1941.74" freq="0.0" file="out.xml"/>
	<inductionLoop id="15_9_0" lane="15_9_0" pos="937.85" freq="0.0" file="out.xml"/>
	<inductionLoop id="16_10_0" lane="16_10_0" pos="1024.87" freq="0.0" file="out.xml"/>
	<inductionLoop id="16_15_0" lane="16_15_0" pos="1529.24" freq="0.0" file="out.xml"/>
	<inductionLoop id="16_17_0" lane="16_17_0" pos="489.02" freq="0.0" file="out.xml"/>
	<inductionLoop id="16_22_0" lane="16_22_0" pos="1299.29" freq="0.0" file="out.xml"/>
	<inductionLoop id="17_16_0" lane="17_16_0" pos="489.02" freq="0.0" file="out.xml"/>
	<inductionLoop id="18_19_0" lane="18_19_0" pos="491.1" freq="0.0" file="out.xml"/>
	<inductionLoop id="19_13_0" lane="19_13_0" pos="2068.67" freq="0.0" file="out.xml"/>
	<inductionLoop id="19_18_0" lane="19_18_0" pos="491.1" freq="0.0" file="out.xml"/>
	<inductionLoop id="19_20_0" lane="19_20_0" pos="1184.61" freq="0.0" file="out.xml"/>
	<inductionLoop id="19_25_0" lane="19_25_0" pos="1370.46" freq="0.0" file="out.xml"/>
	<inductionLoop id="1_7_0" lane="1_7_0" pos="490.96" freq="0.0" file="out.xml"/>
	<inductionLoop id="20_14_0" lane="20_14_0" pos="944.67" freq="0.0" file="out.xml"/>
	<inductionLoop id="20_19_0" lane="20_19_0" pos="1184.61" freq="0.0" file="out.xml"/>
	<inductionLoop id="20_21_0" lane="20_21_0" pos="2042.13" freq="0.0" file="out.xml"/>
	<inductionLoop id="20_26_0" lane="20_26_0" pos="1616.04" freq="0.0" file="out.xml"/>
	<inductionLoop id="21_15_0" lane="21_15_0" pos="1941.74" freq="0.0" file="out.xml"/>
	<inductionLoop id="21_20_0" lane="21_20_0" pos="2042.13" freq="0.0" file="out.xml"/>
	<inductionLoop id="21_22_0" lane="21_22_0" pos="1067.68" freq="0.0" file="out.xml"/>
	<inductionLoop id="21_27_0" lane="21_27_0" pos="1363.38" freq="0.0" file="out.xml"/>
	<inductionLoop id="22_16_0" lane="22_16_0" pos="1299.29" freq="0.0" file="out.xml"/>
	<inductionLoop id="22_21_0" lane="22_21_0" pos="1067.68" freq="0.0" file="out.xml"/>
	<inductionLoop id="22_23_0" lane="22_23_0" pos="489.65" freq="0.0" file="out.xml"/>
	<inductionLoop id="22_28_0" lane="22_28_0" pos="1680.53" freq="0.0" file="out.xml"/>
	<inductionLoop id="23_22_0" lane="23_22_0" pos="489.65" freq="0.0" file="out.xml"/>
	<inductionLoop id="25_19_0" lane="25_19_0" pos="1370.46" freq="0.0" file="out.xml"/>
	<inductionLoop id="25_26_0" lane="25_26_0" pos="1283.49" freq="0.0" file="out.xml"/>
	<inductionLoop id="25_31_0" lane="25_31_0" pos="492.01" freq="0.0" file="out.xml"/>
	<inductionLoop id="26_20_0" lane="26_20_0" pos="1616.04" freq="0.0" file="out.xml"/>
	<inductionLoop id="26_25_0" lane="26_25_0" pos="1283.49" freq="0.0" file="out.xml"/>
	<inductionLoop id="26_27_0" lane="26_27_0" pos="1639.94" freq="0.0" file="out.xml"/>
	<inductionLoop id="26_32_0" lane="26_32_0" pos="481.41" freq="0.0" file="out.xml"/>
	<inductionLoop id="27_21_0" lane="27_21_0" pos="1363.38" freq="0.0" file="out.xml"/>
	<inductionLoop id="27_26_0" lane="27_26_0" pos="1639.94" freq="0.0" file="out.xml"/>
	<inductionLoop id="27_28_0" lane="27_28_0" pos="1116.24" freq="0.0" file="out.xml"/>
	<inductionLoop id="27_33_0" lane="27_33_0" pos="487.52" freq="0.0" file="out.xml"/>
	<inductionLoop id="28_22_0" lane="28_22_0" pos="1680.53" freq="0.0" file="out.xml"/>
	<inductionLoop id="28_27_0" lane="28_27_0" pos="1116.24" freq="0.0" file="out.xml"/>
	<inductionLoop id="28_34_0" lane="28_34_0" pos="494.71" freq="0.0" file="out.xml"/>
	<inductionLoop id="2_8_0" lane="2_8_0" pos="429.88" freq="0.0" file="out.xml"/>
	<inductionLoop id="31_25_0" lane="31_25_0" pos="492.01" freq="0.0" file="out.xml"/>
	<inductionLoop id="32_26_0" lane="32_26_0" pos="481.41" freq="0.0" file="out.xml"/>
	<inductionLoop id="33_27_0" lane="33_27_0" pos="487.52" freq="0.0" file="out.xml"/>
	<inductionLoop id="34_28_0" lane="34_28_0" pos="494.71" freq="0.0" file="out.xml"/>
	<inductionLoop id="3_9_0" lane="3_9_0" pos="475.38" freq="0.0" file="out.xml"/>
	<inductionLoop id="4_10_0" lane="4_10_0" pos="476.21" freq="0.0" file="out.xml"/>
	<inductionLoop id="7_1_0" lane="7_1_0" pos="490.96" freq="0.0" file="out.xml"/>
	<inductionLoop id="7_13_0" lane="7_13_0" pos="581.53" freq="0.0" file="out.xml"/>
	<inductionLoop id="7_8_0" lane="7_8_0" pos="1663.79" freq="0.0" file="out.xml"/>
	<inductionLoop id="8_14_0" lane="8_14_0" pos="1405.78" freq="0.0" file="out.xml"/>
	<inductionLoop id="8_2_0" lane="8_2_0" pos="429.88" freq="0.0" file="out.xml"/>
	<inductionLoop id="8_7_0" lane="8_7_0" pos="1663.79" freq="0.0" file="out.xml"/>
	<inductionLoop id="8_9_0" lane="8_9_0" pos="305.48" freq="0.0" file="out.xml"/>
	<inductionLoop id="9_10_0" lane="9_10_0" pos="1483.9" freq="0.0" file="out.xml"/>
	<inductionLoop id="9_15_0" lane="9_15_0" pos="937.85" freq="0.0" file="out.xml"/>
	<inductionLoop id="9_3_0" lane="9_3_0" pos="475.38" freq="0.0" file="out.xml"/>
	<inductionLoop id="9_8_0" lane="9_8_0" pos="305.48" freq="0.0" file="out.xml"/>
</additional>
