<?xml version="1.0" encoding="UTF-8"?>

<additional xmlns:xsi="http://www.w3.org/2001/XMLSchema-instance" xsi:noNamespaceSchemaLocation="http://sumo.dlr.de/xsd/additional_file.xsd">
	<taz id="taz_0" shape="972.5446314285715,737.0795421428572 972.5446314285715,726.0324578571428 960.5673685714286,726.0324578571428 960.5673685714286,737.0795421428572 972.5446314285715,737.0795421428572">
		<tazSource weight="1" id="1_7"/>
		<tazSink weight="1" id="7_1"/>
	</taz>
	<taz id="taz_1" shape="359.54463142857145,2304.0795421428566 359.54463142857145,2293.0324578571426 347.56736857142863,2293.0324578571426 347.56736857142863,2304.0795421428566 359.54463142857145,2304.0795421428566">
		<tazSource weight="1" id="2_8"/>
		<tazSink weight="1" id="8_2"/>
	</taz>
	<taz id="taz_2" shape="653.5446314285715,2546.0795421428566 653.5446314285715,2535.0324578571426 641.5673685714286,2535.0324578571426 641.5673685714286,2546.0795421428566 653.5446314285715,2546.0795421428566">
		<tazSource weight="1" id="3_9"/>
		<tazSink weight="1" id="9_3"/>
	</taz>
	<taz id="taz_3" shape="913.5446314285715,4027.0795421428566 913.5446314285715,4016.0324578571426 901.5673685714286,4016.0324578571426 901.5673685714286,4027.0795421428566 913.5446314285715,4027.0795421428566">
		<tazSource weight="1" id="4_10"/>
		<tazSink weight="1" id="10_4"/>
	</taz>
	<taz id="taz_4" shape="1535.544631428571,534.0795421428572 1535.544631428571,523.0324578571428 1523.5673685714282,523.0324578571428 1523.5673685714282,534.0795421428572 1535.544631428571,534.0795421428572">
		<tazSource weight="1" id="12_13"/>
		<tazSink weight="1" id="13_12"/>
	</taz>
	<taz id="taz_5" shape="1860.544631428571,4502.079542142857 1860.544631428571,4491.032457857143 1848.5673685714282,4491.032457857143 1848.5673685714282,4502.079542142857 1860.544631428571,4502.079542142857">
		<tazSource weight="1" id="17_16"/>
		<tazSink weight="1" id="16_17"/>
	</taz>
	<taz id="taz_6" shape="3604.544631428571,865.0795421428572 3604.544631428571,854.0324578571428 3592.5673685714282,854.0324578571428 3592.5673685714282,865.0795421428572 3604.544631428571,865.0795421428572">
		<tazSource weight="1" id="18_19"/>
		<tazSink weight="1" id="19_18"/>
	</taz>
	<taz id="taz_7" shape="3173.544631428571,4405.079542142857 3173.544631428571,4394.032457857143 3161.5673685714282,4394.032457857143 3161.5673685714282,4405.079542142857 3173.544631428571,4405.079542142857">
		<tazSource weight="1" id="23_22"/>
		<tazSink weight="1" id="22_23"/>
	</taz>
	<taz id="taz_8" shape="4902.544631428571,359.0795421428572 4902.544631428571,348.0324578571429 4890.567368571428,348.0324578571429 4890.567368571428,359.0795421428572 4902.544631428571,359.0795421428572">
		<tazSource weight="1" id="31_25"/>
		<tazSink weight="1" id="25_31"/>
	</taz>
	<taz id="taz_9" shape="4202.544631428571,1459.0795421428568 4202.544631428571,1448.0324578571424 4190.567368571428,1448.0324578571424 4190.567368571428,1459.0795421428568 4202.544631428571,1459.0795421428568">
		<tazSource weight="1" id="32_26"/>
		<tazSink weight="1" id="26_32"/>
	</taz>
	<taz id="taz_10" shape="4779.544631428571,3022.0795421428566 4779.544631428571,3011.0324578571426 4767.567368571428,3011.0324578571426 4767.567368571428,3022.0795421428566 4779.544631428571,3022.0795421428566">
		<tazSource weight="1" id="33_27"/>
		<tazSink weight="1" id="27_33"/>
	</taz>
	<taz id="taz_11" shape="4852.544631428571,4155.079542142857 4852.544631428571,4144.032457857143 4840.567368571428,4144.032457857143 4840.567368571428,4155.079542142857 4852.544631428571,4155.079542142857">
		<tazSource weight="1" id="34_28"/>
		<tazSink weight="1" id="28_34"/>
	</taz>
</additional>
