<?xml version="1.0" encoding="UTF-8"?>

<!-- generated on 2022-01-22 20:14:44 by Eclipse SUMO netconvert Version 1.10.0
<configuration xmlns:xsi="http://www.w3.org/2001/XMLSchema-instance" xsi:noNamespaceSchemaLocation="http://sumo.dlr.de/xsd/netconvertConfiguration.xsd">

    <input>
        <node-files value="/tmp/tmpu0to8pey"/>
        <edge-files value="/tmp/tmp0rtwya9x"/>
    </input>

    <output>
        <output-file value="input_files/network/sumo-grid-network-od132.net.xml"/>
    </output>

    <report>
        <verbose value="true"/>
        <aggregate-warnings value="5"/>
    </report>

</configuration>
-->

<net version="1.9" junctionCornerDetail="5" limitTurnSpeed="5.50" xmlns:xsi="http://www.w3.org/2001/XMLSchema-instance" xsi:noNamespaceSchemaLocation="http://sumo.dlr.de/xsd/net_file.xsd">

    <location netOffset="-2918.00,-2850.00" convBoundary="0.00,0.00,4896.56,4496.56" origBoundary="2918.00,2850.00,7814.56,7346.56" projParameter="!"/>

    <edge id=":1_0" function="internal">
        <lane id=":1_0_0" index="0" speed="3.65" length="4.67" shape="967.69,730.42 967.97,731.84 967.69,732.69 966.84,732.97 965.42,732.69"/>
    </edge>
    <edge id=":10_0" function="internal">
        <lane id=":10_0_0" index="0" speed="21.70" length="29.66" shape="569.70,3685.96 565.48,3681.53 559.57,3674.88 554.17,3667.96 551.45,3662.75"/>
    </edge>
    <edge id=":10_1" function="internal">
        <lane id=":10_1_0" index="0" speed="6.03" length="4.12" shape="569.70,3685.96 568.15,3682.44 568.23,3682.18"/>
    </edge>
    <edge id=":10_2" function="internal">
        <lane id=":10_2_0" index="0" speed="3.65" length="2.34" shape="569.70,3685.96 569.41,3684.55 569.70,3683.70"/>
    </edge>
    <edge id=":10_9" function="internal">
        <lane id=":10_9_0" index="0" speed="6.03" length="10.78" shape="568.23,3682.18 569.26,3679.01 572.16,3676.88 575.99,3677.24"/>
    </edge>
    <edge id=":10_10" function="internal">
        <lane id=":10_10_0" index="0" speed="3.65" length="2.34" shape="569.70,3683.70 570.55,3683.41 571.96,3683.70"/>
    </edge>
    <edge id=":10_3" function="internal">
        <lane id=":10_3_0" index="0" speed="5.98" length="14.61" shape="574.56,3680.10 569.73,3677.99 567.69,3677.88 568.44,3679.79 571.96,3683.70"/>
    </edge>
    <edge id=":10_4" function="internal">
        <lane id=":10_4_0" index="0" speed="13.89" length="29.42" shape="574.56,3680.10 564.86,3674.88 557.78,3670.25 553.31,3666.21 551.45,3662.75"/>
    </edge>
    <edge id=":10_5" function="internal">
        <lane id=":10_5_0" index="0" speed="3.65" length="4.67" shape="574.56,3680.10 573.84,3678.85 573.84,3677.95 574.56,3677.42 575.99,3677.24"/>
    </edge>
    <edge id=":10_6" function="internal">
        <lane id=":10_6_0" index="0" speed="13.89" length="26.52" shape="554.61,3662.20 556.25,3664.91 560.37,3668.32 566.95,3672.43 575.99,3677.24"/>
    </edge>
    <edge id=":10_7" function="internal">
        <lane id=":10_7_0" index="0" speed="21.01" length="27.78" shape="554.61,3662.20 557.18,3667.14 562.28,3673.47 567.88,3679.54 571.96,3683.70"/>
    </edge>
    <edge id=":10_8" function="internal">
        <lane id=":10_8_0" index="0" speed="3.65" length="1.77" shape="554.61,3662.20 554.03,3663.52 553.76,3663.71"/>
    </edge>
    <edge id=":10_11" function="internal">
        <lane id=":10_11_0" index="0" speed="3.65" length="2.90" shape="553.76,3663.71 553.31,3664.05 552.45,3663.80 551.45,3662.75"/>
    </edge>
    <edge id=":12_0" function="internal">
        <lane id=":12_0_0" index="0" speed="3.65" length="4.67" shape="1530.69,527.42 1530.97,528.84 1530.69,529.69 1529.84,529.97 1528.42,529.69"/>
    </edge>
    <edge id=":13_0" function="internal">
        <lane id=":13_0_0" index="0" speed="7.41" length="13.83" shape="1176.42,188.77 1175.32,183.82 1173.73,180.57 1171.66,179.03 1169.10,179.19"/>
    </edge>
    <edge id=":13_1" function="internal">
        <lane id=":13_1_0" index="0" speed="9.18" length="23.47" shape="1176.42,188.77 1176.40,182.06 1178.64,177.63 1183.16,175.48 1189.95,175.61"/>
    </edge>
    <edge id=":13_2" function="internal">
        <lane id=":13_2_0" index="0" speed="7.61" length="21.82" shape="1176.42,188.77 1176.06,181.58 1177.70,178.33 1181.32,179.03 1186.94,183.68"/>
    </edge>
    <edge id=":13_3" function="internal">
        <lane id=":13_3_0" index="0" speed="3.65" length="4.67" shape="1176.42,188.77 1177.04,187.47 1177.77,186.95 1178.62,187.23 1179.59,188.30"/>
    </edge>
    <edge id=":13_4" function="internal">
        <lane id=":13_4_0" index="0" speed="5.49" length="10.47" shape="1184.68,185.94 1181.97,183.69 1180.21,183.34 1179.42,184.87 1179.59,188.30"/>
    </edge>
    <edge id=":13_5" function="internal">
        <lane id=":13_5_0" index="0" speed="10.82" length="17.83" shape="1184.68,185.94 1180.30,182.11 1176.24,179.71 1172.51,178.73 1169.10,179.19"/>
    </edge>
    <edge id=":13_6" function="internal">
        <lane id=":13_6_0" index="0" speed="7.61" length="21.95" shape="1184.68,185.94 1180.02,180.31 1179.35,176.71 1182.66,175.14 1189.95,175.61"/>
    </edge>
    <edge id=":13_7" function="internal">
        <lane id=":13_7_0" index="0" speed="3.65" length="4.67" shape="1184.68,185.94 1184.40,184.53 1184.68,183.68 1185.53,183.40 1186.94,183.68"/>
    </edge>
    <edge id=":13_8" function="internal">
        <lane id=":13_8_0" index="0" speed="5.46" length="10.43" shape="1189.45,178.77 1185.98,178.55 1184.41,179.29 1184.73,181.00 1186.94,183.68"/>
    </edge>
    <edge id=":13_9" function="internal">
        <lane id=":13_9_0" index="0" speed="7.90" length="17.05" shape="1189.45,178.77 1184.50,178.67 1181.21,180.23 1179.57,183.44 1179.59,188.30"/>
    </edge>
    <edge id=":13_10" function="internal">
        <lane id=":13_10_0" index="0" speed="13.89" length="20.47" shape="1189.45,178.77 1184.85,178.27 1179.19,178.05 1173.57,178.30 1169.10,179.19"/>
    </edge>
    <edge id=":13_11" function="internal">
        <lane id=":13_11_0" index="0" speed="3.65" length="4.67" shape="1189.45,178.77 1188.39,177.79 1188.12,176.94 1188.64,176.21 1189.95,175.61"/>
    </edge>
    <edge id=":13_12" function="internal">
        <lane id=":13_12_0" index="0" speed="13.89" length="22.06" shape="1168.02,176.18 1172.73,175.26 1178.90,174.96 1185.10,175.13 1189.95,175.61"/>
    </edge>
    <edge id=":13_13" function="internal">
        <lane id=":13_13_0" index="0" speed="11.83" length="21.44" shape="1168.02,176.18 1172.35,175.51 1176.95,176.54 1181.81,179.26 1186.94,183.68"/>
    </edge>
    <edge id=":13_14" function="internal">
        <lane id=":13_14_0" index="0" speed="8.72" length="19.66" shape="1168.02,176.18 1172.22,175.68 1175.55,177.54 1178.00,181.74 1179.59,188.30"/>
    </edge>
    <edge id=":13_15" function="internal">
        <lane id=":13_15_0" index="0" speed="3.65" length="4.67" shape="1168.02,176.18 1169.42,176.52 1170.06,177.14 1169.96,178.03 1169.10,179.19"/>
    </edge>
    <edge id=":14_0" function="internal">
        <lane id=":14_0_0" index="0" speed="13.29" length="15.83" shape="1402.39,1643.56 1399.38,1645.98 1396.77,1649.07 1394.73,1652.56 1393.42,1656.21"/>
    </edge>
    <edge id=":14_1" function="internal">
        <lane id=":14_1_0" index="0" speed="13.89" length="18.36" shape="1402.39,1643.56 1398.65,1645.62 1394.17,1647.62 1389.57,1649.32 1385.45,1650.46"/>
    </edge>
    <edge id=":14_2" function="internal">
        <lane id=":14_2_0" index="0" speed="7.46" length="7.41" shape="1402.39,1643.56 1398.08,1645.53 1395.42,1645.37"/>
    </edge>
    <edge id=":14_3" function="internal">
        <lane id=":14_3_0" index="0" speed="3.65" length="2.34" shape="1402.39,1643.56 1400.95,1643.52 1400.19,1643.06"/>
    </edge>
    <edge id=":14_16" function="internal">
        <lane id=":14_16_0" index="0" speed="7.46" length="8.72" shape="1395.42,1645.37 1394.77,1645.33 1392.44,1642.95 1391.11,1638.40"/>
    </edge>
    <edge id=":14_17" function="internal">
        <lane id=":14_17_0" index="0" speed="3.65" length="2.34" shape="1400.19,1643.06 1400.09,1642.17 1400.68,1640.86"/>
    </edge>
    <edge id=":14_4" function="internal">
        <lane id=":14_4_0" index="0" speed="5.79" length="9.15" shape="1394.27,1637.93 1395.03,1640.51 1396.35,1641.86 1398.23,1641.97 1400.68,1640.86"/>
    </edge>
    <edge id=":14_5" function="internal">
        <lane id=":14_5_0" index="0" speed="13.89" length="18.37" shape="1394.27,1637.93 1394.62,1642.19 1394.56,1647.10 1394.15,1652.00 1393.42,1656.21"/>
    </edge>
    <edge id=":14_6" function="internal">
        <lane id=":14_6_0" index="0" speed="8.98" length="17.24" shape="1394.27,1637.93 1394.30,1642.58 1392.83,1646.22 1389.88,1648.85 1385.45,1650.46"/>
    </edge>
    <edge id=":14_7" function="internal">
        <lane id=":14_7_0" index="0" speed="3.65" length="4.67" shape="1394.27,1637.93 1393.66,1639.23 1392.93,1639.75 1392.08,1639.47 1391.11,1638.40"/>
    </edge>
    <edge id=":14_8" function="internal">
        <lane id=":14_8_0" index="0" speed="7.67" length="12.32" shape="1384.78,1647.33 1387.96,1646.18 1390.07,1644.31 1391.12,1641.71 1391.11,1638.40"/>
    </edge>
    <edge id=":14_9" function="internal">
        <lane id=":14_9_0" index="0" speed="13.89" length="17.23" shape="1384.78,1647.33 1388.73,1646.26 1392.98,1644.71 1397.10,1642.85 1400.68,1640.86"/>
    </edge>
    <edge id=":14_10" function="internal">
        <lane id=":14_10_0" index="0" speed="7.45" length="5.67" shape="1384.78,1647.33 1389.59,1646.98 1390.36,1647.32"/>
    </edge>
    <edge id=":14_11" function="internal">
        <lane id=":14_11_0" index="0" speed="3.65" length="2.23" shape="1384.78,1647.33 1386.12,1647.87 1386.61,1648.48"/>
    </edge>
    <edge id=":14_18" function="internal">
        <lane id=":14_18_0" index="0" speed="7.45" length="10.63" shape="1390.36,1647.32 1392.63,1648.34 1393.91,1651.41 1393.42,1656.21"/>
    </edge>
    <edge id=":14_19" function="internal">
        <lane id=":14_19_0" index="0" speed="3.65" length="2.44" shape="1386.61,1648.48 1386.68,1648.56 1386.46,1649.43 1385.45,1650.46"/>
    </edge>
    <edge id=":14_12" function="internal">
        <lane id=":14_12_0" index="0" speed="5.75" length="9.17" shape="1390.31,1655.46 1390.58,1652.76 1389.86,1651.03 1388.15,1650.26 1385.45,1650.46"/>
    </edge>
    <edge id=":14_13" function="internal">
        <lane id=":14_13_0" index="0" speed="13.89" length="17.15" shape="1390.31,1655.46 1391.04,1651.44 1391.43,1646.96 1391.46,1642.47 1391.11,1638.40"/>
    </edge>
    <edge id=":14_14" function="internal">
        <lane id=":14_14_0" index="0" speed="13.89" length="18.20" shape="1390.31,1655.46 1391.83,1651.50 1394.35,1647.34 1397.44,1643.59 1400.68,1640.86"/>
    </edge>
    <edge id=":14_15" function="internal">
        <lane id=":14_15_0" index="0" speed="3.65" length="4.67" shape="1390.31,1655.46 1391.37,1654.48 1392.24,1654.28 1392.93,1654.85 1393.42,1656.21"/>
    </edge>
    <edge id=":15_0" function="internal">
        <lane id=":15_0_0" index="0" speed="11.66" length="14.50" shape="1156.42,2642.02 1155.22,2638.33 1153.43,2635.22 1151.05,2632.68 1148.09,2630.71"/>
    </edge>
    <edge id=":15_1" function="internal">
        <lane id=":15_1_0" index="0" speed="13.89" length="17.36" shape="1156.42,2642.02 1155.77,2637.95 1155.52,2633.39 1155.70,2628.83 1156.34,2624.77"/>
    </edge>
    <edge id=":15_2" function="internal">
        <lane id=":15_2_0" index="0" speed="7.47" length="16.08" shape="1156.42,2642.02 1156.01,2637.32 1157.31,2634.26 1160.31,2632.85 1165.03,2633.07"/>
    </edge>
    <edge id=":15_3" function="internal">
        <lane id=":15_3_0" index="0" speed="3.65" length="4.67" shape="1156.42,2642.02 1156.93,2640.67 1157.62,2640.10 1158.49,2640.31 1159.54,2641.30"/>
    </edge>
    <edge id=":15_4" function="internal">
        <lane id=":15_4_0" index="0" speed="5.80" length="9.15" shape="1164.43,2636.22 1161.75,2636.09 1160.05,2636.89 1159.31,2638.63 1159.54,2641.30"/>
    </edge>
    <edge id=":15_5" function="internal">
        <lane id=":15_5_0" index="0" speed="13.89" length="17.29" shape="1164.43,2636.22 1160.43,2635.29 1156.08,2633.98 1151.82,2632.41 1148.09,2630.71"/>
    </edge>
    <edge id=":15_6" function="internal">
        <lane id=":15_6_0" index="0" speed="8.12" length="5.42" shape="1164.43,2636.22 1161.08,2634.70 1159.85,2633.47"/>
    </edge>
    <edge id=":15_7" function="internal">
        <lane id=":15_7_0" index="0" speed="3.65" length="2.34" shape="1164.43,2636.22 1163.40,2635.21 1163.16,2634.35"/>
    </edge>
    <edge id=":15_16" function="internal">
        <lane id=":15_16_0" index="0" speed="8.12" length="9.78" shape="1159.85,2633.47 1158.25,2631.87 1156.50,2628.35 1156.34,2624.77"/>
    </edge>
    <edge id=":15_17" function="internal">
        <lane id=":15_17_0" index="0" speed="3.65" length="2.34" shape="1163.16,2634.35 1163.70,2633.64 1165.03,2633.07"/>
    </edge>
    <edge id=":15_8" function="internal">
        <lane id=":15_8_0" index="0" speed="6.94" length="10.82" shape="1159.45,2625.52 1159.24,2628.32 1160.09,2630.52 1162.02,2632.10 1165.03,2633.07"/>
    </edge>
    <edge id=":15_9" function="internal">
        <lane id=":15_9_0" index="0" speed="13.89" length="15.90" shape="1159.45,2625.52 1158.81,2629.35 1158.64,2633.41 1158.89,2637.47 1159.54,2641.30"/>
    </edge>
    <edge id=":15_10" function="internal">
        <lane id=":15_10_0" index="0" speed="7.64" length="15.20" shape="1159.45,2625.52 1157.85,2629.53 1155.42,2631.74 1152.17,2632.13 1148.09,2630.71"/>
    </edge>
    <edge id=":15_11" function="internal">
        <lane id=":15_11_0" index="0" speed="3.65" length="4.67" shape="1159.45,2625.52 1158.39,2626.50 1157.52,2626.70 1156.84,2626.12 1156.34,2624.77"/>
    </edge>
    <edge id=":15_12" function="internal">
        <lane id=":15_12_0" index="0" speed="6.05" length="9.07" shape="1149.56,2627.87 1151.99,2628.71 1153.94,2628.48 1155.39,2627.17 1156.34,2624.77"/>
    </edge>
    <edge id=":15_13" function="internal">
        <lane id=":15_13_0" index="0" speed="13.89" length="16.37" shape="1149.56,2627.87 1153.16,2629.52 1157.12,2630.98 1161.16,2632.19 1165.03,2633.07"/>
    </edge>
    <edge id=":15_14" function="internal">
        <lane id=":15_14_0" index="0" speed="12.62" length="5.46" shape="1149.56,2627.87 1152.62,2630.16 1153.70,2631.39"/>
    </edge>
    <edge id=":15_15" function="internal">
        <lane id=":15_15_0" index="0" speed="3.65" length="2.34" shape="1149.56,2627.87 1150.26,2629.13 1150.24,2630.02"/>
    </edge>
    <edge id=":15_18" function="internal">
        <lane id=":15_18_0" index="0" speed="12.62" length="11.61" shape="1153.70,2631.39 1155.62,2633.59 1158.08,2637.51 1159.54,2641.30"/>
    </edge>
    <edge id=":15_19" function="internal">
        <lane id=":15_19_0" index="0" speed="3.65" length="2.34" shape="1150.24,2630.02 1149.52,2630.55 1148.09,2630.71"/>
    </edge>
    <edge id=":16_0" function="internal">
        <lane id=":16_0_0" index="0" speed="44.44" length="21.03" shape="1507.64,4151.90 1504.12,4148.80 1499.49,4145.26 1494.69,4141.97 1490.64,4139.59"/>
    </edge>
    <edge id=":16_1" function="internal">
        <lane id=":16_1_0" index="0" speed="20.20" length="6.77" shape="1507.64,4151.90 1504.65,4148.12 1503.63,4146.46"/>
    </edge>
    <edge id=":16_2" function="internal">
        <lane id=":16_2_0" index="0" speed="7.39" length="6.43" shape="1507.64,4151.90 1504.06,4147.35 1503.97,4146.72"/>
    </edge>
    <edge id=":16_3" function="internal">
        <lane id=":16_3_0" index="0" speed="3.65" length="2.22" shape="1507.64,4151.90 1507.35,4150.48 1507.60,4149.75"/>
    </edge>
    <edge id=":16_16" function="internal">
        <lane id=":16_16_0" index="0" speed="20.20" length="15.18" shape="1503.63,4146.46 1501.43,4142.87 1498.67,4137.38 1497.04,4132.84"/>
    </edge>
    <edge id=":16_17" function="internal">
        <lane id=":16_17_0" index="0" speed="7.39" length="12.01" shape="1503.97,4146.72 1503.57,4143.95 1506.16,4141.70 1511.84,4140.59"/>
    </edge>
    <edge id=":16_18" function="internal">
        <lane id=":16_18_0" index="0" speed="3.65" length="2.46" shape="1507.60,4149.75 1507.64,4149.64 1508.48,4149.35 1509.90,4149.64"/>
    </edge>
    <edge id=":16_4" function="internal">
        <lane id=":16_4_0" index="0" speed="5.51" length="9.54" shape="1512.07,4143.79 1509.14,4144.36 1507.79,4145.52 1508.05,4147.28 1509.90,4149.64"/>
    </edge>
    <edge id=":16_5" function="internal">
        <lane id=":16_5_0" index="0" speed="13.89" length="21.97" shape="1512.07,4143.79 1507.25,4143.60 1501.16,4142.67 1495.17,4141.25 1490.64,4139.59"/>
    </edge>
    <edge id=":16_6" function="internal">
        <lane id=":16_6_0" index="0" speed="10.10" length="20.57" shape="1512.07,4143.79 1506.51,4143.44 1502.15,4141.51 1498.99,4137.97 1497.04,4132.84"/>
    </edge>
    <edge id=":16_7" function="internal">
        <lane id=":16_7_0" index="0" speed="3.65" length="4.67" shape="1512.07,4143.79 1510.82,4143.08 1510.36,4142.31 1510.70,4141.48 1511.84,4140.59"/>
    </edge>
    <edge id=":16_8" function="internal">
        <lane id=":16_8_0" index="0" speed="8.95" length="15.96" shape="1500.16,4132.13 1501.67,4136.10 1504.13,4138.83 1507.51,4140.33 1511.84,4140.59"/>
    </edge>
    <edge id=":16_9" function="internal">
        <lane id=":16_9_0" index="0" speed="19.38" length="20.18" shape="1500.16,4132.13 1501.65,4136.42 1504.12,4141.38 1507.04,4146.09 1509.90,4149.64"/>
    </edge>
    <edge id=":16_10" function="internal">
        <lane id=":16_10_0" index="0" speed="7.38" length="18.21" shape="1500.16,4132.13 1500.75,4137.78 1499.36,4140.91 1495.99,4141.51 1490.64,4139.59"/>
    </edge>
    <edge id=":16_11" function="internal">
        <lane id=":16_11_0" index="0" speed="3.65" length="4.67" shape="1500.16,4132.13 1499.64,4133.48 1498.95,4134.04 1498.08,4133.83 1497.04,4132.84"/>
    </edge>
    <edge id=":16_12" function="internal">
        <lane id=":16_12_0" index="0" speed="5.52" length="9.49" shape="1492.08,4136.73 1494.86,4137.73 1496.62,4137.42 1497.35,4135.79 1497.04,4132.84"/>
    </edge>
    <edge id=":16_13" function="internal">
        <lane id=":16_13_0" index="0" speed="13.89" length="20.27" shape="1492.08,4136.73 1496.35,4138.33 1501.76,4139.64 1507.27,4140.46 1511.84,4140.59"/>
    </edge>
    <edge id=":16_14" function="internal">
        <lane id=":16_14_0" index="0" speed="45.51" length="22.05" shape="1492.08,4136.73 1496.25,4139.20 1501.34,4142.70 1506.25,4146.44 1509.90,4149.64"/>
    </edge>
    <edge id=":16_15" function="internal">
        <lane id=":16_15_0" index="0" speed="3.65" length="2.45" shape="1492.08,4136.73 1492.79,4137.99 1492.79,4138.88 1492.70,4138.95"/>
    </edge>
    <edge id=":16_19" function="internal">
        <lane id=":16_19_0" index="0" speed="3.65" length="2.23" shape="1492.70,4138.95 1492.07,4139.42 1490.64,4139.59"/>
    </edge>
    <edge id=":17_0" function="internal">
        <lane id=":17_0_0" index="0" speed="3.65" length="4.67" shape="1855.69,4495.42 1855.97,4496.84 1855.69,4497.69 1854.84,4497.97 1853.42,4497.69"/>
    </edge>
    <edge id=":18_0" function="internal">
        <lane id=":18_0_0" index="0" speed="3.65" length="4.67" shape="3599.69,858.42 3599.97,859.84 3599.69,860.69 3598.84,860.97 3597.42,860.69"/>
    </edge>
    <edge id=":19_0" function="internal">
        <lane id=":19_0_0" index="0" speed="9.48" length="16.54" shape="3250.16,513.42 3247.18,511.43 3243.64,510.85 3239.54,511.69 3234.88,513.95"/>
    </edge>
    <edge id=":19_1" function="internal">
        <lane id=":19_1_0" index="0" speed="17.42" length="19.85" shape="3250.16,513.42 3246.55,510.82 3241.68,508.46 3236.54,506.63 3232.14,505.56"/>
    </edge>
    <edge id=":19_2" function="internal">
        <lane id=":19_2_0" index="0" speed="7.47" length="4.73" shape="3250.16,513.42 3247.31,509.66"/>
    </edge>
    <edge id=":19_3" function="internal">
        <lane id=":19_3_0" index="0" speed="3.65" length="2.03" shape="3250.16,513.42 3249.88,512.01 3250.06,511.45"/>
    </edge>
    <edge id=":19_16" function="internal">
        <lane id=":19_16_0" index="0" speed="7.47" length="11.37" shape="3247.31,509.66 3246.79,506.37 3248.59,503.58 3252.71,501.28"/>
    </edge>
    <edge id=":19_17" function="internal">
        <lane id=":19_17_0" index="0" speed="3.65" length="2.64" shape="3250.06,511.45 3250.16,511.16 3251.01,510.88 3252.42,511.16"/>
    </edge>
    <edge id=":19_4" function="internal">
        <lane id=":19_4_0" index="0" speed="5.80" length="9.15" shape="3253.87,504.26 3251.53,505.57 3250.51,507.16 3250.80,509.02 3252.42,511.16"/>
    </edge>
    <edge id=":19_5" function="internal">
        <lane id=":19_5_0" index="0" speed="13.89" length="21.34" shape="3253.87,504.26 3249.54,506.18 3244.24,508.82 3239.00,511.60 3234.88,513.95"/>
    </edge>
    <edge id=":19_6" function="internal">
        <lane id=":19_6_0" index="0" speed="13.89" length="21.90" shape="3253.87,504.26 3249.21,505.34 3243.11,505.89 3236.96,505.95 3232.14,505.56"/>
    </edge>
    <edge id=":19_7" function="internal">
        <lane id=":19_7_0" index="0" speed="3.65" length="4.67" shape="3253.87,504.26 3252.46,503.95 3251.80,503.35 3251.88,502.46 3252.71,501.28"/>
    </edge>
    <edge id=":19_8" function="internal">
        <lane id=":19_8_0" index="0" speed="13.89" length="20.23" shape="3232.64,502.40 3237.21,502.82 3242.78,502.82 3248.30,502.33 3252.71,501.28"/>
    </edge>
    <edge id=":19_9" function="internal">
        <lane id=":19_9_0" index="0" speed="18.25" length="21.81" shape="3232.64,502.40 3237.32,503.61 3243.06,505.75 3248.54,508.41 3252.42,511.16"/>
    </edge>
    <edge id=":19_10" function="internal">
        <lane id=":19_10_0" index="0" speed="7.50" length="10.40" shape="3232.64,502.40 3239.14,504.14 3241.67,506.64 3241.63,506.75"/>
    </edge>
    <edge id=":19_11" function="internal">
        <lane id=":19_11_0" index="0" speed="3.65" length="2.47" shape="3232.64,502.40 3233.70,503.38 3233.97,504.24 3233.89,504.34"/>
    </edge>
    <edge id=":19_18" function="internal">
        <lane id=":19_18_0" index="0" speed="7.50" length="10.17" shape="3241.63,506.75 3240.25,509.91 3234.88,513.95"/>
    </edge>
    <edge id=":19_19" function="internal">
        <lane id=":19_19_0" index="0" speed="3.65" length="2.21" shape="3233.89,504.34 3233.45,504.96 3232.14,505.56"/>
    </edge>
    <edge id=":19_12" function="internal">
        <lane id=":19_12_0" index="0" speed="5.46" length="10.05" shape="3233.23,511.21 3235.86,509.23 3236.55,507.64 3235.31,506.41 3232.14,505.56"/>
    </edge>
    <edge id=":19_13" function="internal">
        <lane id=":19_13_0" index="0" speed="13.89" length="21.88" shape="3233.23,511.21 3237.43,508.82 3242.83,505.96 3248.30,503.23 3252.71,501.28"/>
    </edge>
    <edge id=":19_14" function="internal">
        <lane id=":19_14_0" index="0" speed="10.58" length="20.81" shape="3233.23,511.21 3238.94,508.50 3244.04,507.58 3248.53,508.47 3252.42,511.16"/>
    </edge>
    <edge id=":19_15" function="internal">
        <lane id=":19_15_0" index="0" speed="3.65" length="4.67" shape="3233.23,511.21 3234.67,511.27 3235.43,511.75 3235.50,512.65 3234.88,513.95"/>
    </edge>
    <edge id=":2_0" function="internal">
        <lane id=":2_0_0" index="0" speed="3.65" length="4.67" shape="354.69,2297.42 354.97,2298.84 354.69,2299.69 353.84,2299.97 352.42,2299.69"/>
    </edge>
    <edge id=":20_0" function="internal">
        <lane id=":20_0_0" index="0" speed="6.56" length="10.09" shape="2207.36,1139.77 2205.73,1137.15 2203.86,1135.72 2201.76,1135.48 2199.42,1136.45"/>
    </edge>
    <edge id=":20_1" function="internal">
        <lane id=":20_1_0" index="0" speed="10.51" length="23.29" shape="2207.36,1139.77 2206.36,1135.10 2207.78,1130.48 2211.61,1125.91 2217.87,1121.40"/>
    </edge>
    <edge id=":20_2" function="internal">
        <lane id=":20_2_0" index="0" speed="8.54" length="21.53" shape="2207.36,1139.77 2206.39,1135.23 2208.33,1131.94 2213.18,1129.90 2220.94,1129.10"/>
    </edge>
    <edge id=":20_3" function="internal">
        <lane id=":20_3_0" index="0" speed="3.65" length="4.67" shape="2207.36,1139.77 2207.57,1138.34 2208.13,1137.64 2209.02,1137.66 2210.26,1138.41"/>
    </edge>
    <edge id=":20_4" function="internal">
        <lane id=":20_4_0" index="0" speed="7.16" length="14.76" shape="2221.00,1132.30 2215.27,1132.78 2211.56,1133.95 2209.89,1135.83 2210.26,1138.41"/>
    </edge>
    <edge id=":20_5" function="internal">
        <lane id=":20_5_0" index="0" speed="13.89" length="22.12" shape="2221.00,1132.30 2216.12,1132.61 2209.92,1133.40 2203.87,1134.68 2199.42,1136.45"/>
    </edge>
    <edge id=":20_6" function="internal">
        <lane id=":20_6_0" index="0" speed="6.35" length="15.42" shape="2221.00,1132.30 2217.10,1131.10 2215.05,1128.11 2215.20,1124.49 2217.87,1121.40"/>
    </edge>
    <edge id=":20_7" function="internal">
        <lane id=":20_7_0" index="0" speed="3.65" length="4.67" shape="2221.00,1132.30 2219.79,1131.52 2219.37,1130.73 2219.76,1129.92 2220.94,1129.10"/>
    </edge>
    <edge id=":20_8" function="internal">
        <lane id=":20_8_0" index="0" speed="5.53" length="11.21" shape="2219.52,1124.14 2216.40,1126.38 2215.59,1127.95 2217.11,1128.86 2220.94,1129.10"/>
    </edge>
    <edge id=":20_9" function="internal">
        <lane id=":20_9_0" index="0" speed="9.43" length="18.56" shape="2219.52,1124.14 2214.27,1127.84 2210.97,1131.45 2209.64,1134.97 2210.26,1138.41"/>
    </edge>
    <edge id=":20_10" function="internal">
        <lane id=":20_10_0" index="0" speed="13.89" length="23.57" shape="2219.52,1124.14 2199.42,1136.45"/>
    </edge>
    <edge id=":20_11" function="internal">
        <lane id=":20_11_0" index="0" speed="3.65" length="2.34" shape="2219.52,1124.14 2218.08,1124.07 2217.32,1123.59"/>
    </edge>
    <edge id=":20_16" function="internal">
        <lane id=":20_16_0" index="0" speed="3.65" length="2.34" shape="2217.32,1123.59 2217.25,1122.70 2217.87,1121.40"/>
    </edge>
    <edge id=":20_12" function="internal">
        <lane id=":20_12_0" index="0" speed="13.89" length="23.65" shape="2197.70,1133.75 2217.87,1121.40"/>
    </edge>
    <edge id=":20_13" function="internal">
        <lane id=":20_13_0" index="0" speed="13.89" length="7.24" shape="2197.70,1133.75 2202.41,1131.90 2204.54,1131.43"/>
    </edge>
    <edge id=":20_14" function="internal">
        <lane id=":20_14_0" index="0" speed="8.04" length="5.83" shape="2197.70,1133.75 2201.48,1132.14 2203.20,1132.26"/>
    </edge>
    <edge id=":20_15" function="internal">
        <lane id=":20_15_0" index="0" speed="3.65" length="2.34" shape="2197.70,1133.75 2199.14,1133.78 2199.91,1134.24"/>
    </edge>
    <edge id=":20_17" function="internal">
        <lane id=":20_17_0" index="0" speed="13.89" length="16.59" shape="2204.54,1131.43 2209.03,1130.45 2215.80,1129.49 2220.94,1129.10"/>
    </edge>
    <edge id=":20_18" function="internal">
        <lane id=":20_18_0" index="0" speed="8.04" length="9.90" shape="2203.20,1132.26 2204.83,1132.38 2207.75,1134.47 2210.26,1138.41"/>
    </edge>
    <edge id=":20_19" function="internal">
        <lane id=":20_19_0" index="0" speed="3.65" length="2.34" shape="2199.91,1134.24 2200.00,1135.13 2199.42,1136.45"/>
    </edge>
    <edge id=":21_0" function="internal">
        <lane id=":21_0_0" index="0" speed="8.86" length="10.98" shape="3089.82,2995.95 3087.31,2996.94 3085.29,2998.54 3083.76,3000.76 3082.71,3003.58"/>
    </edge>
    <edge id=":21_1" function="internal">
        <lane id=":21_1_0" index="0" speed="13.89" length="17.30" shape="3089.82,2995.95 3085.77,2996.55 3081.24,2996.61 3076.70,2996.28 3072.62,2995.67"/>
    </edge>
    <edge id=":21_2" function="internal">
        <lane id=":21_2_0" index="0" speed="9.31" length="6.53" shape="3089.82,2995.95 3086.14,2996.14 3083.50,2995.06"/>
    </edge>
    <edge id=":21_3" function="internal">
        <lane id=":21_3_0" index="0" speed="3.65" length="2.49" shape="3089.82,2995.95 3088.46,2995.46 3087.88,2994.78 3087.91,2994.64"/>
    </edge>
    <edge id=":21_16" function="internal">
        <lane id=":21_16_0" index="0" speed="9.31" length="10.11" shape="3083.50,2995.06 3082.81,2994.77 3079.82,2991.86 3077.18,2987.40"/>
    </edge>
    <edge id=":21_17" function="internal">
        <lane id=":21_17_0" index="0" speed="3.65" length="2.19" shape="3087.91,2994.64 3088.07,2993.91 3089.04,2992.85"/>
    </edge>
    <edge id=":21_4" function="internal">
        <lane id=":21_4_0" index="0" speed="8.05" length="12.22" shape="3080.08,2986.03 3082.07,2989.49 3084.22,2991.78 3086.55,2992.90 3089.04,2992.85"/>
    </edge>
    <edge id=":21_5" function="internal">
        <lane id=":21_5_0" index="0" speed="13.89" length="17.98" shape="3080.08,2986.03 3081.56,2990.00 3082.66,2994.69 3083.12,2999.43 3082.71,3003.58"/>
    </edge>
    <edge id=":21_6" function="internal">
        <lane id=":21_6_0" index="0" speed="7.38" length="17.61" shape="3080.08,2986.03 3081.75,2991.18 3081.06,2994.50 3078.02,2996.00 3072.62,2995.67"/>
    </edge>
    <edge id=":21_7" function="internal">
        <lane id=":21_7_0" index="0" speed="3.65" length="4.67" shape="3080.08,2986.03 3079.86,2987.46 3079.31,2988.16 3078.42,2988.14 3077.18,2987.40"/>
    </edge>
    <edge id=":21_8" function="internal">
        <lane id=":21_8_0" index="0" speed="5.57" length="9.38" shape="3073.21,2992.53 3076.09,2992.70 3077.71,2991.90 3078.07,2990.14 3077.18,2987.40"/>
    </edge>
    <edge id=":21_9" function="internal">
        <lane id=":21_9_0" index="0" speed="13.89" length="15.94" shape="3073.21,2992.53 3077.07,2993.14 3081.15,2993.49 3085.21,2993.44 3089.04,2992.85"/>
    </edge>
    <edge id=":21_10" function="internal">
        <lane id=":21_10_0" index="0" speed="8.46" length="6.63" shape="3073.21,2992.53 3078.21,2994.05 3079.35,2994.87"/>
    </edge>
    <edge id=":21_11" function="internal">