<?xml version="1.0" encoding="UTF-8"?>

<!-- generated on 2022-02-21 11:34:59 by Eclipse SUMO duarouter Version 1.10.0
<configuration xmlns:xsi="http://www.w3.org/2001/XMLSchema-instance" xsi:noNamespaceSchemaLocation="http://sumo.dlr.de/xsd/duarouterConfiguration.xsd">

    <input>
        <net-file value="static/_8c5129e3-9f38-433e-951f-13a89adf774f/154/14/../../../../input_files/network/sumo-grid-network-od132.net.xml"/>
        <route-files value="static/_8c5129e3-9f38-433e-951f-13a89adf774f/154/14/../13/trips_013.rou.alt.xml"/>
        <weight-files value="static/_8c5129e3-9f38-433e-951f-13a89adf774f/154/14/../13/dump_013_900.xml"/>
    </input>

    <output>
        <output-file value="static/_8c5129e3-9f38-433e-951f-13a89adf774f/154/14/trips_014.rou.xml"/>
        <alternatives-output value="static/_8c5129e3-9f38-433e-951f-13a89adf774f/154/14/trips_014.rou.alt.xml"/>
        <exit-times value="false"/>
    </output>

    <processing>
        <max-alternatives value="5"/>
        <remove-loops value="true"/>
        <with-taz value="false"/>
        <weights.expand value="true"/>
        <routing-algorithm value="dijkstra"/>
        <gawron.beta value="0.9"/>
        <gawron.a value="0.5"/>
        <keep-all-routes value="false"/>
        <logit.beta value="0.15"/>
        <logit.gamma value="1"/>
    </processing>

    <time>
        <begin value="0.0"/>
        <end value="4500.0"/>
    </time>

    <report>
        <verbose value="false"/>
        <xml-validation value="never"/>
        <xml-validation.routes value="never"/>
        <no-warnings value="false"/>
        <ignore-errors value="false"/>
        <no-step-log value="true"/>
    </report>

    <random_number>
        <random value="false"/>
        <seed value="111"/>
    </random_number>

</configuration>
-->

<routes xmlns:xsi="http://www.w3.org/2001/XMLSchema-instance" xsi:noNamespaceSchemaLocation="http://sumo.dlr.de/xsd/routes_file.xsd">
    <vehicle id="0.0" depart="0.00" departLane="free" departSpeed="max" fromTaz="taz_0" toTaz="taz_1">
        <route edges="1_7 7_8 8_2"/>
    </vehicle>
    <vehicle id="1.0" depart="0.00" departLane="free" departSpeed="max" fromTaz="taz_0" toTaz="taz_2">
        <route edges="1_7 7_8 8_9 9_3"/>
    </vehicle>
    <vehicle id="10.0" depart="0.00" departLane="free" departSpeed="max" fromTaz="taz_0" toTaz="taz_11">
        <route edges="1_7 7_8 8_9 9_15 15_21 21_27 27_28 28_34"/>
    </vehicle>
    <vehicle id="100.0" depart="0.00" departLane="free" departSpeed="max" fromTaz="taz_9" toTaz="taz_1">
        <route edges="32_26 26_20 20_14 14_8 8_2"/>
    </vehicle>
    <vehicle id="101.0" depart="0.00" departLane="free" departSpeed="max" fromTaz="taz_9" toTaz="taz_2">
        <route edges="32_26 26_20 20_14 14_8 8_9 9_3"/>
    </vehicle>
    <vehicle id="102.0" depart="0.00" departLane="free" departSpeed="max" fromTaz="taz_9" toTaz="taz_3">
        <route edges="32_26 26_20 20_14 14_8 8_9 9_10 10_4"/>
    </vehicle>
    <vehicle id="103.0" depart="0.00" departLane="free" departSpeed="max" fromTaz="taz_9" toTaz="taz_4">
        <route edges="32_26 26_20 20_14 14_13 13_12"/>
    </vehicle>
    <vehicle id="104.0" depart="0.00" departLane="free" departSpeed="max" fromTaz="taz_9" toTaz="taz_5">
        <route edges="32_26 26_20 20_14 14_15 15_16 16_17"/>
    </vehicle>
    <vehicle id="105.0" depart="0.00" departLane="free" departSpeed="max" fromTaz="taz_9" toTaz="taz_6">
        <route edges="32_26 26_25 25_19 19_18"/>
    </vehicle>
    <vehicle id="106.0" depart="0.00" departLane="free" departSpeed="max" fromTaz="taz_9" toTaz="taz_7">
        <route edges="32_26 26_27 27_21 21_22 22_23"/>
    </vehicle>
    <vehicle id="107.0" depart="0.00" departLane="free" departSpeed="max" fromTaz="taz_9" toTaz="taz_8">
        <route edges="32_26 26_25 25_31"/>
    </vehicle>
    <vehicle id="108.0" depart="0.00" departLane="free" departSpeed="max" fromTaz="taz_9" toTaz="taz_10">
        <route edges="32_26 26_27 27_33"/>
    </vehicle>
    <vehicle id="109.0" depart="0.00" departLane="free" departSpeed="max" fromTaz="taz_9" toTaz="taz_11">
        <route edges="32_26 26_27 27_28 28_34"/>
    </vehicle>
    <vehicle id="11.0" depart="0.00" departLane="free" departSpeed="max" fromTaz="taz_1" toTaz="taz_0">
        <route edges="2_8 8_7 7_1"/>
    </vehicle>
    <vehicle id="110.0" depart="0.00" departLane="free" departSpeed="max" fromTaz="taz_10" toTaz="taz_0">
        <route edges="33_27 27_21 21_15 15_9 9_8 8_7 7_1"/>
    </vehicle>
    <vehicle id="111.0" depart="0.00" departLane="free" departSpeed="max" fromTaz="taz_10" toTaz="taz_1">
        <route edges="33_27 27_21 21_15 15_9 9_8 8_2"/>
    </vehicle>
    <vehicle id="112.0" depart="0.00" departLane="free" departSpeed="max" fromTaz="taz_10" toTaz="taz_2">
        <route edges="33_27 27_21 21_15 15_9 9_3"/>
    </vehicle>
    <vehicle id="113.0" depart="0.00" departLane="free" departSpeed="max" fromTaz="taz_10" toTaz="taz_3">
        <route edges="33_27 27_21 21_22 22_16 16_10 10_4"/>
    </vehicle>
    <vehicle id="114.0" depart="0.00" departLane="free" departSpeed="max" fromTaz="taz_10" toTaz="taz_4">
        <route edges="33_27 27_26 26_20 20_14 14_13 13_12"/>
    </vehicle>
    <vehicle id="115.0" depart="0.00" departLane="free" departSpeed="max" fromTaz="taz_10" toTaz="taz_5">
        <route edges="33_27 27_21 21_22 22_16 16_17"/>
    </vehicle>
    <vehicle id="116.0" depart="0.00" departLane="free" departSpeed="max" fromTaz="taz_10" toTaz="taz_6">
        <route edges="33_27 27_26 26_25 25_19 19_18"/>
    </vehicle>
    <vehicle id="117.0" depart="0.00" departLane="free" departSpeed="max" fromTaz="taz_10" toTaz="taz_7">
        <route edges="33_27 27_21 21_22 22_23"/>
    </vehicle>
    <vehicle id="118.0" depart="0.00" departLane="free" departSpeed="max" fromTaz="taz_10" toTaz="taz_8">
        <route edges="33_27 27_26 26_25 25_31"/>
    </vehicle>
    <vehicle id="119.0" depart="0.00" departLane="free" departSpeed="max" fromTaz="taz_10" toTaz="taz_9">
        <route edges="33_27 27_26 26_32"/>
    </vehicle>
    <vehicle id="12.0" depart="0.00" departLane="free" departSpeed="max" fromTaz="taz_1" toTaz="taz_2">
        <route edges="2_8 8_9 9_3"/>
    </vehicle>
    <vehicle id="120.0" depart="0.00" departLane="free" departSpeed="max" fromTaz="taz_10" toTaz="taz_11">
        <route edges="33_27 27_28 28_34"/>
    </vehicle>
    <vehicle id="121.0" depart="0.00" departLane="free" departSpeed="max" fromTaz="taz_11" toTaz="taz_0">
        <route edges="34_28 28_27 27_21 21_15 15_9 9_8 8_7 7_1"/>
    </vehicle>
    <vehicle id="122.0" depart="0.00" departLane="free" departSpeed="max" fromTaz="taz_11" toTaz="taz_1">
        <route edges="34_28 28_27 27_21 21_15 15_9 9_8 8_2"/>
    </vehicle>
    <vehicle id="123.0" depart="0.00" departLane="free" departSpeed="max" fromTaz="taz_11" toTaz="taz_2">
        <route edges="34_28 28_27 27_21 21_15 15_9 9_3"/>
    </vehicle>
    <vehicle id="124.0" depart="0.00" departLane="free" departSpeed="max" fromTaz="taz_11" toTaz="taz_3">
        <route edges="34_28 28_22 22_16 16_10 10_4"/>
    </vehicle>
    <vehicle id="125.0" depart="0.00" departLane="free" departSpeed="max" fromTaz="taz_11" toTaz="taz_4">
        <route edges="34_28 28_27 27_26 26_20 20_14 14_13 13_12"/>
    </vehicle>
    <vehicle id="126.0" depart="0.00" departLane="free" departSpeed="max" fromTaz="taz_11" toTaz="taz_5">
        <route edges="34_28 28_22 22_16 16_17"/>
    </vehicle>
    <vehicle id="127.0" depart="0.00" departLane="free" departSpeed="max" fromTaz="taz_11" toTaz="taz_6">
        <route edges="34_28 28_27 27_26 26_25 25_19 19_18"/>
    </vehicle>
    <vehicle id="129.0" depart="0.00" departLane="free" departSpeed="max" fromTaz="taz_11" toTaz="taz_8">
        <route edges="34_28 28_27 27_26 26_25 25_31"/>
    </vehicle>
    <vehicle id="13.0" depart="0.00" departLane="free" departSpeed="max" fromTaz="taz_1" toTaz="taz_3">
        <route edges="2_8 8_9 9_10 10_4"/>
    </vehicle>
    <vehicle id="130.0" depart="0.00" departLane="free" departSpeed="max" fromTaz="taz_11" toTaz="taz_9">
        <route edges="34_28 28_27 27_26 26_32"/>
    </vehicle>
    <vehicle id="131.0" depart="0.00" departLane="free" departSpeed="max" fromTaz="taz_11" toTaz="taz_10">
        <route edges="34_28 28_27 27_33"/>
    </vehicle>
    <vehicle id="14.0" depart="0.00" departLane="free" departSpeed="max" fromTaz="taz_1" toTaz="taz_4">
        <route edges="2_8 8_7 7_13 13_12"/>
    </vehicle>
    <vehicle id="15.0" depart="0.00" departLane="free" departSpeed="max" fromTaz="taz_1" toTaz="taz_5">
        <route edges="2_8 8_9 9_15 15_16 16_17"/>
    </vehicle>
    <vehicle id="16.0" depart="0.00" departLane="free" departSpeed="max" fromTaz="taz_1" toTaz="taz_6">
        <route edges="2_8 8_14 14_20 20_19 19_18"/>
    </vehicle>
    <vehicle id="17.0" depart="0.00" departLane="free" departSpeed="max" fromTaz="taz_1" toTaz="taz_7">
        <route edges="2_8 8_9 9_15 15_16 16_22 22_23"/>
    </vehicle>
    <vehicle id="18.0" depart="0.00" departLane="free" departSpeed="max" fromTaz="taz_1" toTaz="taz_8">
        <route edges="2_8 8_14 14_20 20_19 19_25 25_31"/>
    </vehicle>
    <vehicle id="19.0" depart="0.00" departLane="free" departSpeed="max" fromTaz="taz_1" toTaz="taz_9">
        <route edges="2_8 8_14 14_20 20_26 26_32"/>
    </vehicle>
    <vehicle id="20.0" depart="0.00" departLane="free" departSpeed="max" fromTaz="taz_1" toTaz="taz_10">
        <route edges="2_8 8_9 9_15 15_21 21_27 27_33"/>
    </vehicle>
    <vehicle id="21.0" depart="0.00" departLane="free" departSpeed="max" fromTaz="taz_1" toTaz="taz_11">
        <route edges="2_8 8_9 9_15 15_21 21_27 27_28 28_34"/>
    </vehicle>
    <vehicle id="22.0" depart="0.00" departLane="free" departSpeed="max" fromTaz="taz_2" toTaz="taz_0">
        <route edges="3_9 9_8 8_7 7_1"/>
    </vehicle>
    <vehicle id="23.0" depart="0.00" departLane="free" departSpeed="max" fromTaz="taz_2" toTaz="taz_1">
        <route edges="3_9 9_8 8_2"/>
    </vehicle>
    <vehicle id="24.0" depart="0.00" departLane="free" departSpeed="max" fromTaz="taz_2" toTaz="taz_3">
        <route edges="3_9 9_10 10_4"/>
    </vehicle>
    <vehicle id="25.0" depart="0.00" departLane="free" departSpeed="max" fromTaz="taz_2" toTaz="taz_4">
        <route edges="3_9 9_8 8_7 7_13 13_12"/>
    </vehicle>
    <vehicle id="26.0" depart="0.00" departLane="free" departSpeed="max" fromTaz="taz_2" toTaz="taz_5">
        <route edges="3_9 9_10 10_16 16_17"/>
    </vehicle>
    <vehicle id="27.0" depart="0.00" departLane="free" departSpeed="max" fromTaz="taz_2" toTaz="taz_6">
        <route edges="3_9 9_8 8_14 14_20 20_19 19_18"/>
    </vehicle>
    <vehicle id="28.0" depart="0.00" departLane="free" departSpeed="max" fromTaz="taz_2" toTaz="taz_7">
        <route edges="3_9 9_10 10_16 16_22 22_23"/>
    </vehicle>
    <vehicle id="29.0" depart="0.00" departLane="free" departSpeed="max" fromTaz="taz_2" toTaz="taz_8">
        <route edges="3_9 9_8 8_14 14_20 20_19 19_25 25_31"/>
    </vehicle>
    <vehicle id="3.0" depart="0.00" departLane="free" departSpeed="max" fromTaz="taz_0" toTaz="taz_4">
        <route edges="1_7 7_13 13_12"/>
    </vehicle>
    <vehicle id="30.0" depart="0.00" departLane="free" departSpeed="max" fromTaz="taz_2" toTaz="taz_9">
        <route edges="3_9 9_8 8_14 14_20 20_26 26_32"/>
    </vehicle>
    <vehicle id="31.0" depart="0.00" departLane="free" departSpeed="max" fromTaz="taz_2" toTaz="taz_10">
        <route edges="3_9 9_15 15_21 21_27 27_33"/>
    </vehicle>
    <vehicle id="32.0" depart="0.00" departLane="free" departSpeed="max" fromTaz="taz_2" toTaz="taz_11">
        <route edges="3_9 9_15 15_21 21_27 27_28 28_34"/>
    </vehicle>
    <vehicle id="33.0" depart="0.00" departLane="free" departSpeed="max" fromTaz="taz_3" toTaz="taz_0">
        <route edges="4_10 10_9 9_8 8_7 7_1"/>
    </vehicle>
    <vehicle id="34.0" depart="0.00" departLane="free" departSpeed="max" fromTaz="taz_3" toTaz="taz_1">
        <route edges="4_10 10_9 9_8 8_2"/>
    </vehicle>
    <vehicle id="35.0" depart="0.00" departLane="free" departSpeed="max" fromTaz="taz_3" toTaz="taz_2">
        <route edges="4_10 10_9 9_3"/>
    </vehicle>
    <vehicle id="36.0" depart="0.00" departLane="free" departSpeed="max" fromTaz="taz_3" toTaz="taz_4">
        <route edges="4_10 10_9 9_8 8_7 7_13 13_12"/>
    </vehicle>
    <vehicle id="37.0" depart="0.00" departLane="free" departSpeed="max" fromTaz="taz_3" toTaz="taz_5">
        <route edges="4_10 10_16 16_17"/>
    </vehicle>
    <vehicle id="38.0" depart="0.00" departLane="free" departSpeed="max" fromTaz="taz_3" toTaz="taz_6">
        <route edges="4_10 10_9 9_8 8_14 14_20 20_19 19_18"/>
    </vehicle>
    <vehicle id="39.0" depart="0.00" departLane="free" departSpeed="max" fromTaz="taz_3" toTaz="taz_7">
        <route edges="4_10 10_16 16_22 22_23"/>
    </vehicle>
    <vehicle id="4.0" depart="0.00" departLane="free" departSpeed="max" fromTaz="taz_0" toTaz="taz_5">
        <route edges="1_7 7_8 8_9 9_15 15_16 16_17"/>
    </vehicle>
    <vehicle id="40.0" depart="0.00" departLane="free" departSpeed="max" fromTaz="taz_3" toTaz="taz_8">
        <route edges="4_10 10_9 9_8 8_14 14_20 20_19 19_25 25_31"/>
    </vehicle>
    <vehicle id="41.0" depart="0.00" departLane="free" departSpeed="max" fromTaz="taz_3" toTaz="taz_9">
        <route edges="4_10 10_9 9_8 8_14 14_20 20_26 26_32"/>
    </vehicle>
    <vehicle id="42.0" depart="0.00" departLane="free" departSpeed="max" fromTaz="taz_3" toTaz="taz_10">
        <route edges="4_10 10_16 16_22 22_21 21_27 27_33"/>
    </vehicle>
    <vehicle id="43.0" depart="0.00" departLane="free" departSpeed="max" fromTaz="taz_3" toTaz="taz_11">
        <route edges="4_10 10_16 16_22 22_28 28_34"/>
    </vehicle>
    <vehicle id="44.0" depart="0.00" departLane="free" departSpeed="max" fromTaz="taz_4" toTaz="taz_0">
        <route edges="12_13 13_7 7_1"/>
    </vehicle>
    <vehicle id="45.0" depart="0.00" departLane="free" departSpeed="max" fromTaz="taz_4" toTaz="taz_1">
        <route edges="12_13 13_7 7_8 8_2"/>
    </vehicle>
    <vehicle id="47.0" depart="0.00" departLane="free" departSpeed="max" fromTaz="taz_4" toTaz="taz_3">
        <route edges="12_13 13_7 7_8 8_9 9_10 10_4"/>
    </vehicle>
    <vehicle id="48.0" depart="0.00" departLane="free" departSpeed="max" fromTaz="taz_4" toTaz="taz_5">
        <route edges="12_13 13_14 14_15 15_16 16_17"/>
    </vehicle>
    <vehicle id="49.0" depart="0.00" departLane="free" departSpeed="max" fromTaz="taz_4" toTaz="taz_6">
        <route edges="12_13 13_19 19_18"/>
    </vehicle>
    <vehicle id="5.0" depart="0.00" departLane="free" departSpeed="max" fromTaz="taz_0" toTaz="taz_6">
        <route edges="1_7 7_13 13_19 19_18"/>
    </vehicle>
    <vehicle id="50.0" depart="0.00" departLane="free" departSpeed="max" fromTaz="taz_4" toTaz="taz_7">
        <route edges="12_13 13_14 14_15 15_16 16_22 22_23"/>
    </vehicle>
    <vehicle id="51.0" depart="0.00" departLane="free" departSpeed="max" fromTaz="taz_4" toTaz="taz_8">
        <route edges="12_13 13_19 19_25 25_31"/>
    </vehicle>
    <vehicle id="52.0" depart="0.00" departLane="free" departSpeed="max" fromTaz="taz_4" toTaz="taz_9">
        <route edges="12_13 13_14 14_20 20_26 26_32"/>
    </vehicle>
    <vehicle id="53.0" depart="0.00" departLane="free" departSpeed="max" fromTaz="taz_4" toTaz="taz_10">
        <route edges="12_13 13_14 14_20 20_26 26_27 27_33"/>
    </vehicle>
    <vehicle id="54.0" depart="0.00" departLane="free" departSpeed="max" fromTaz="taz_4" toTaz="taz_11">
        <route edges="12_13 13_14 14_20 20_26 26_27 27_28 28_34"/>
    </vehicle>
    <vehicle id="55.0" depart="0.00" departLane="free" departSpeed="max" fromTaz="taz_5" toTaz="taz_0">
        <route edges="17_16 16_10 10_9 9_8 8_7 7_1"/>
    </vehicle>
    <vehicle id="56.0" depart="0.00" departLane="free" departSpeed="max" fromTaz="taz_5" toTaz="taz_1">
        <route edges="17_16 16_10 10_9 9_8 8_2"/>
    </vehicle>
    <vehicle id="57.0" depart="0.00" departLane="free" departSpeed="max" fromTaz="taz_5" toTaz="taz_2">
        <route edges="17_16 16_15 15_9 9_3"/>
    </vehicle>
    <vehicle id="58.0" depart="0.00" departLane="free" departSpeed="max" fromTaz="taz_5" toTaz="taz_3">
        <route edges="17_16 16_10 10_4"/>
    </vehicle>
    <vehicle id="59.0" depart="0.00" departLane="free" departSpeed="max" fromTaz="taz_5" toTaz="taz_4">
        <route edges="17_16 16_15 15_14 14_13 13_12"/>
    </vehicle>
    <vehicle id="6.0" depart="0.00" departLane="free" departSpeed="max" fromTaz="taz_0" toTaz="taz_7">
        <route edges="1_7 7_8 8_9 9_15 15_16 16_22 22_23"/>
    </vehicle>
    <vehicle id="60.0" depart="0.00" departLane="free" departSpeed="max" fromTaz="taz_5" toTaz="taz_6">
        <route edges="17_16 16_15 15_14 14_20 20_19 19_18"/>
    </vehicle>
    <vehicle id="61.0" depart="0.00" departLane="free" departSpeed="max" fromTaz="taz_5" toTaz="taz_7">
        <route edges="17_16 16_22 22_23"/>
    </vehicle>
    <vehicle id="62.0" depart="0.00" departLane="free" departSpeed="max" fromTaz="taz_5" toTaz="taz_8">
        <route edges="17_16 16_15 15_14 14_20 20_19 19_25 25_31"/>
    </vehicle>
    <vehicle id="63.0" depart="0.00" departLane="free" departSpeed="max" fromTaz="taz_5" toTaz="taz_9">
        <route edges="17_16 16_15 15_14 14_20 20_26 26_32"/>
    </vehicle>
    <vehicle id="64.0" depart="0.00" departLane="free" departSpeed="max" fromTaz="taz_5" toTaz="taz_10">
        <route edges="17_16 16_22 22_21 21_27 27_33"/>
    </vehicle>
    <vehicle id="65.0" depart="0.00" departLane="free" departSpeed="max" fromTaz="taz_5" toTaz="taz_11">
        <route edges="17_16 16_22 22_28 28_34"/>
    </vehicle>
    <vehicle id="66.0" depart="0.00" departLane="free" departSpeed="max" fromTaz="taz_6" toTaz="taz_0">
        <route edges="18_19 19_13 13_7 7_1"/>
    </vehicle>
    <vehicle id="67.0" depart="0.00" departLane="free" departSpeed="max" fromTaz="taz_6" toTaz="taz_1">
        <route edges="18_19 19_20 20_14 14_8 8_2"/>
    </vehicle>
    <vehicle id="68.0" depart="0.00" departLane="free" departSpeed="max" fromTaz="taz_6" toTaz="taz_2">
        <route edges="18_19 19_20 20_14 14_8 8_9 9_3"/>
    </vehicle>
    <vehicle id="69.0" depart="0.00" departLane="free" departSpeed="max" fromTaz="taz_6" toTaz="taz_3">
        <route edges="18_19 19_20 20_14 14_8 8_9 9_10 10_4"/>
    </vehicle>
    <vehicle id="7.0" depart="0.00" departLane="free" departSpeed="max" fromTaz="taz_0" toTaz="taz_8">
        <route edges="1_7 7_13 13_19 19_25 25_31"/>
    </vehicle>
    <vehicle id="70.0" depart="0.00" departLane="free" departSpeed="max" fromTaz="taz_6" toTaz="taz_4">
        <route edges="18_19 19_13 13_12"/>
    </vehicle>
    <vehicle id="71.0" depart="0.00" departLane="free" departSpeed="max" fromTaz="taz_6" toTaz="taz_5">
        <route edges="18_19 19_20 20_14 14_15 15_16 16_17"/>
    </vehicle>
    <vehicle id="72.0" depart="0.00" departLane="free" departSpeed="max" fromTaz="taz_6" toTaz="taz_7">
        <route edges="18_19 19_20 20_21 21_22 22_23"/>
    </vehicle>
    <vehicle id="73.0" depart="0.00" departLane="free" departSpeed="max" fromTaz="taz_6" toTaz="taz_8">
        <route edges="18_19 19_25 25_31"/>
    </vehicle>
    <vehicle id="74.0" depart="0.00" departLane="free" departSpeed="max" fromTaz="taz_6" toTaz="taz_9">
        <route edges="18_19 19_25 25_26 26_32"/>
    </vehicle>
    <vehicle id="75.0" depart="0.00" departLane="free" departSpeed="max" fromTaz="taz_6" toTaz="taz_10">
        <route edges="18_19 19_25 25_26 26_27 27_33"/>
    </vehicle>
    <vehicle id="76.0" depart="0.00" departLane="free" departSpeed="max" fromTaz="taz_6" toTaz="taz_11">
        <route edges="18_19 19_25 25_26 26_27 27_28 28_34"/>
    </vehicle>
    <vehicle id="77.0" depart="0.00" departLane="free" departSpeed="max" fromTaz="taz_7" toTaz="taz_0">
        <route edges="23_22 22_16 16_15 15_9 9_8 8_7 7_1"/>
    </vehicle>
    <vehicle id="78.0" depart="0.00" departLane="free" departSpeed="max" fromTaz="taz_7" toTaz="taz_1">
        <route edges="23_22 22_16 16_15 15_9 9_8 8_2"/>
    </vehicle>
    <vehicle id="79.0" depart="0.00" departLane="free" departSpeed="max" fromTaz="taz_7" toTaz="taz_2">
        <route edges="23_22 22_16 16_15 15_9 9_3"/>
    </vehicle>
    <vehicle id="8.0" depart="0.00" departLane="free" departSpeed="max" fromTaz="taz_0" toTaz="taz_9">
        <route edges="1_7 7_13 13_14 14_20 20_26 26_32"/>
    </vehicle>
    <vehicle id="80.0" depart="0.00" departLane="free" departSpeed="max" fromTaz="taz_7" toTaz="taz_3">
        <route edges="23_22 22_16 16_10 10_4"/>
    </vehicle>
    <vehicle id="81.0" depart="0.00" departLane="free" departSpeed="max" fromTaz="taz_7" toTaz="taz_4">
        <route edges="23_22 22_16 16_15 15_14 14_13 13_12"/>
    </vehicle>
    <vehicle id="82.0" depart="0.00" departLane="free" departSpeed="max" fromTaz="taz_7" toTaz="taz_5">
        <route edges="23_22 22_16 16_17"/>
    </vehicle>
    <vehicle id="83.0" depart="0.00" departLane="free" departSpeed="max" fromTaz="taz_7" toTaz="taz_6">
        <route edges="23_22 22_21 21_20 20_19 19_18"/>
    </vehicle>
    <vehicle id="84.0" depart="0.00" departLane="free" departSpeed="max" fromTaz="taz_7" toTaz="taz_8">
        <route edges="23_22 22_21 21_27 27_26 26_25 25_31"/>
    </vehicle>
    <vehicle id="85.0" depart="0.00" departLane="free" departSpeed="max" fromTaz="taz_7" toTaz="taz_9">
        <route edges="23_22 22_21 21_27 27_26 26_32"/>
    </vehicle>
    <vehicle id="86.0" depart="0.00" departLane="free" departSpeed="max" fromTaz="taz_7" toTaz="taz_10">
        <route edges="23_22 22_21 21_27 27_33"/>
    </vehicle>
    <vehicle id="87.0" depart="0.00" departLane="free" departSpeed="max" fromTaz="taz_7" toTaz="taz_11">
        <route edges="23_22 22_28 28_34"/>
    </vehicle>
    <vehicle id="88.0" depart="0.00" departLane="free" departSpeed="max" fromTaz="taz_8" toTaz="taz_0">
        <route edges="31_25 25_19 19_13 13_7 7_1"/>
    </vehicle>
    <vehicle id="89.0" depart="0.00" departLane="free" departSpeed="max" fromTaz="taz_8" toTaz="taz_1">
        <route edges="31_25 25_19 19_20 20_14 14_8 8_2"/>
    </vehicle>
    <vehicle id="9.0" depart="0.00" departLane="free" departSpeed="max" fromTaz="taz_0" toTaz="taz_10">
        <route edges="1_7 7_8 8_9 9_15 15_21 21_27 27_33"/>
    </vehicle>
    <vehicle id="90.0" depart="0.00" departLane="free" departSpeed="max" fromTaz="taz_8" toTaz="taz_2">
        <route edges="31_25 25_19 19_20 20_14 14_8 8_9 9_3"/>
    </vehicle>
    <vehicle id="91.0" depart="0.00" departLane="free" departSpeed="max" fromTaz="taz_8" toTaz="taz_3">
        <route edges="31_25 25_19 19_20 20_14 14_8 8_9 9_10 10_4"/>
    </vehicle>
    <vehicle id="92.0" depart="0.00" departLane="free" departSpeed="max" fromTaz="taz_8" toTaz="taz_4">
        <route edges="31_25 25_19 19_13 13_12"/>
    </vehicle>
    <vehicle id="93.0" depart="0.00" departLane="free" departSpeed="max" fromTaz="taz_8" toTaz="taz_5">
        <route edges="31_25 25_19 19_20 20_14 14_15 15_16 16_17"/>
    </vehicle>
    <vehicle id="94.0" depart="0.00" departLane="free" departSpeed="max" fromTaz="taz_8" toTaz="taz_6">
        <route edges="31_25 25_19 19_18"/>
    </vehicle>
    <vehicle id="95.0" depart="0.00" departLane="free" departSpeed="max" fromTaz="taz_8" toTaz="taz_7">
        <route edges="31_25 25_26 26_27 27_21 21_22 22_23"/>
    </vehicle>
    <vehicle id="96.0" depart="0.00" departLane="free" departSpeed="max" fromTaz="taz_8" toTaz="taz_9">
        <route edges="31_25 25_26 26_32"/>
    </vehicle>
    <vehicle id="97.0" depart="0.00" departLane="free" departSpeed="max" fromTaz="taz_8" toTaz="taz_10">
        <route edges="31_25 25_26 26_27 27_33"/>
    </vehicle>
    <vehicle id="98.0" depart="0.00" departLane="free" departSpeed="max" fromTaz="taz_8" toTaz="taz_11">
        <route edges="31_25 25_26 26_27 27_28 28_34"/>
    </vehicle>
    <vehicle id="99.0" depart="0.00" departLane="free" departSpeed="max" fromTaz="taz_9" toTaz="taz_0">
        <route edges="32_26 26_20 20_14 14_13 13_7 7_1"/>
    </vehicle>
    <vehicle id="103.1" depart="30.00" departLane="free" departSpeed="max" fromTaz="taz_9" toTaz="taz_4">
        <route edges="32_26 26_20 20_14 14_13 13_12"/>
    </vehicle>
    <vehicle id="113.1" depart="31.03" departLane="free" departSpeed="max" fromTaz="taz_10" toTaz="taz_3">
        <route edges="33_27 27_21 21_22 22_16 16_10 10_4"/>
    </vehicle>
    <vehicle id="120.1" depart="31.03" departLane="free" departSpeed="max" fromTaz="taz_10" toTaz="taz_11">
        <route edges="33_27 27_28 28_34"/>
    </vehicle>
    <vehicle id="15.1" depart="31.03" departLane="free" departSpeed="max" fromTaz="taz_1" toTaz="taz_5">
        <route edges="2_8 8_9 9_15 15_16 16_17"/>
    </vehicle>
    <vehicle id="60.1" depart="31.03" departLane="free" departSpeed="max" fromTaz="taz_5" toTaz="taz_6">
        <route edges="17_16 16_15 15_14 14_20 20_19 19_18"/>
    </vehicle>
    <vehicle id="33.1" depart="32.14" departLane="free" departSpeed="max" fromTaz="taz_3" toTaz="taz_0">
        <route edges="4_10 10_9 9_8 8_7 7_1"/>
    </vehicle>
    <vehicle id="63.1" depart="32.14" departLane="free" departSpeed="max" fromTaz="taz_5" toTaz="taz_9">
        <route edges="17_16 16_15 15_14 14_20 20_26 26_32"/>
    </vehicle>
    <vehicle id="82.1" depart="32.14" departLane="free" departSpeed="max" fromTaz="taz_7" toTaz="taz_5">
        <route edges="23_22 22_16 16_17"/>
    </vehicle>
    <vehicle id="105.1" depart="33.33" departLane="free" departSpeed="max" fromTaz="taz_9" toTaz="taz_6">
        <route edges="32_26 26_25 25_19 19_18"/>
    </vehicle>
    <vehicle id="6.1" depart="33.33" departLane="free" departSpeed="max" fromTaz="taz_0" toTaz="taz_7">
        <route edges="1_7 7_8 8_9 9_15 15_16 16_22 22_23"/>
    </vehicle>
    <vehicle id="9.1" depart="33.33" departLane="free" departSpeed="max" fromTaz="taz_0" toTaz="taz_10">
        <route edges="1_7 7_8 8_9 9_15 15_21 21_27 27_33"/>
    </vehicle>
    <vehicle id="106.1" depart="34.62" departLane="free" departSpeed="max" fromTaz="taz_9" toTaz="taz_7">
        <route edges="32_26 26_27 27_21 21_22 22_23"/>
    </vehicle>
    <vehicle id="108.1" depart="34.62" departLane="free" departSpeed="max" fromTaz="taz_9" toTaz="taz_10">
        <route edges="32_26 26_27 27_33"/>
    </vehicle>
    <vehicle id="39.1" depart="34.62" departLane="free" departSpeed="max" fromTaz="taz_3" toTaz="taz_7">
        <route edges="4_10 10_16 16_22 22_23"/>
    </vehicle>
    <vehicle id="44.1" depart="34.62" departLane="free" departSpeed="max" fromTaz="taz_4" toTaz="taz_0">
        <route edges="12_13 13_7 7_1"/>
    </vehicle>
    <vehicle id="72.1" depart="34.62" departLane="free" departSpeed="max" fromTaz="taz_6" toTaz="taz_7">
        <route edges="18_19 19_20 20_21 21_22 22_23"/>
    </vehicle>
    <vehicle id="110.1" depart="36.00" departLane="free" departSpeed="max" fromTaz="taz_10" toTaz="taz_0">
        <route edges="33_27 27_21 21_15 15_9 9_8 8_7 7_1"/>
    </vehicle>
    <vehicle id="17.1" depart="36.00" departLane="free" departSpeed="max" fromTaz="taz_1" toTaz="taz_7">
        <route edges="2_8 8_9 9_15 15_16 16_22 22_23"/>
    </vehicle>
    <vehicle id="25.1" depart="36.00" departLane="free" departSpeed="max" fromTaz="taz_2" toTaz="taz_4">
        <route edges="3_9 9_8 8_7 7_13 13_12"/>
    </vehicle>
    <vehicle id="34.1" depart="36.00" departLane="free" departSpeed="max" fromTaz="taz_3" toTaz="taz_1">
        <route edges="4_10 10_9 9_8 8_2"/>
    </vehicle>
    <vehicle id="61.1" depart="36.00" departLane="free" departSpeed="max" fromTaz="taz_5" toTaz="taz_7">
        <route edges="17_16 16_22 22_23"/>
    </vehicle>
    <vehicle id="8.1" depart="36.00" departLane="free" departSpeed="max" fromTaz="taz_0" toTaz="taz_9">
        <route edges="1_7 7_13 13_14 14_20 20_26 26_32"/>
    </vehicle>
    <vehicle id="14.1" depart="37.50" departLane="free" departSpeed="max" fromTaz="taz_1" toTaz="taz_4">
        <route edges="2_8 8_7 7_13 13_12"/>
    </vehicle>
    <vehicle id="16.1" depart="37.50" departLane="free" departSpeed="max" fromTaz="taz_1" toTaz="taz_6">
        <route edges="2_8 8_14 14_20 20_19 19_18"/>
    </vehicle>
    <vehicle id="28.1" depart="37.50" departLane="free" departSpeed="max" fromTaz="taz_2" toTaz="taz_7">
        <route edges="3_9 9_10 10_16 16_22 22_23"/>
    </vehicle>
    <vehicle id="36.1" depart="37.50" departLane="free" departSpeed="max" fromTaz="taz_3" toTaz="taz_4">
        <route edges="4_10 10_9 9_8 8_7 7_13 13_12"/>
    </vehicle>
    <vehicle id="64.1" depart="37.50" departLane="free" departSpeed="max" fromTaz="taz_5" toTaz="taz_10">
        <route edges="17_16 16_22 22_21 21_27 27_33"/>
    </vehicle>
    <vehicle id="66.1" depart="37.50" departLane="free" departSpeed="max" fromTaz="taz_6" toTaz="taz_0">
        <route edges="18_19 19_13 13_7 7_1"/>
    </vehicle>
    <vehicle id="75.1" depart="37.50" departLane="free" departSpeed="max" fromTaz="taz_6" toTaz="taz_10">
        <route edges="18_19 19_25 25_26 26_27 27_33"/>
    </vehicle>
    <vehicle id="55.1" depart="39.13" departLane="free" departSpeed="max" fromTaz="taz_5" toTaz="taz_0">
        <route edges="17_16 16_10 10_9 9_8 8_7 7_1"/>
    </vehicle>
    <vehicle id="65.1" depart="39.13" departLane="free" departSpeed="max" fromTaz="taz_5" toTaz="taz_11">
        <route edges="17_16 16_22 22_28 28_34"/>
    </vehicle>
    <vehicle id="78.1" depart="39.13" departLane="free" departSpeed="max" fromTaz="taz_7" toTaz="taz_1">
        <route edges="23_22 22_16 16_15 15_9 9_8 8_2"/>
    </vehicle>
    <vehicle id="1.1" depart="40.91" departLane="free" departSpeed="max" fromTaz="taz_0" toTaz="taz_2">
        <route edges="1_7 7_8 8_9 9_3"/>
    </vehicle>
    <vehicle id="29.1" depart="40.91" departLane="free" departSpeed="max" fromTaz="taz_2" toTaz="taz_8">
        <route edges="3_9 9_8 8_14 14_20 20_19 19_25 25_31"/>